Circuit: * C:\Users\Jeffrey\Desktop\working\PortaLED\SPICE\PowerOR.asc

Limiting rise time of source v2 to 0.45
Instance "m:u1:1": Width narrower than recommended for a level 3 MOSFET.
.OP point found by inspection.

Date: Wed May 02 10:43:38 2018
Total elapsed time: 0.080 seconds.

tnom = 27
temp = 27
method = modified trap
totiter = 4822
traniter = 4822
tranpoints = 2204
accept = 1893
rejected = 311
matrix size = 16
fillins = 11
solver = Normal
Matrix Compiler1: 1.60 KB object code size  0.3/0.2/[0.1]
Matrix Compiler2: 1.52 KB object code size  0.2/0.2/[0.1]

